/*--------------------------------*- C++ -*----------------------------------*\
  =========                 |
  \\      /  F ield         | OpenFOAM: The Open Source CFD Toolbox
   \\    /   O peration     | Website:  https://openfoam.org
    \\  /    A nd           | Version:  12
     \\/     M anipulation  |
\*---------------------------------------------------------------------------*/
FoamFile
{
    format      ascii;
    class       dictionary;
    location    "system";
    object      controlDict;
}
// * * * * * * * * * * * * * * * * * * * * * * * * * * * * * * * * * * * * * //

// 1. Use the generic solver runner
application     foamRun;

// 2. Tell foamRun which solver logic to use (defined in your library)
solver          shockThermo;

startFrom       startTime;

startTime       0;

stopAt          endTime;

endTime         0.001;

deltaT          1e-05;

maxDeltaT       1;

adjustTimeStep  on;

writeControl    adjustableRunTime;
//writeControl	timeStep;
//writeInterval	1;

writeInterval   1e-04;

purgeWrite      0;

writeFormat     ascii;

writeCompression off;

timeFormat      general;

timePrecision   6;

runTimeModifiable yes;

libs
(
    // Standard Thermo (Safety)
    "libfluidThermophysicalModels.so"

     "libmutationMixture.so"
    "libhighEnthalpyThermophysicalModels.so"

    // Your Solver
    "libshockThermo.so"
);


DebugSwitches
{
    SolverPerformance   0;
}

// ************************************************************************* //
