/*--------------------------------*- C++ -*----------------------------------*\
  =========                 |
  \\      /  F ield         | OpenFOAM: The Open Source CFD Toolbox
   \\    /   O peration     | Website:  https://openfoam.org
    \\  /    A nd           | Version:  13
     \\/     M anipulation  |
\*---------------------------------------------------------------------------*/
FoamFile
{
    format      ascii;
    class       dictionary;
    location    "constant";
    object      physicalProperties;
}
// * * * * * * * * * * * * * * * * * * * * * * * * * * * * * * * * * * * * * //

thermoType
{
    type            highEnthalpyThermo;
    mixture         coefficientWilkeMulticomponentMixture;
    transport       sutherland;
    thermo          janaf;
    energy          sensibleInternalEnergy;
    equationOfState perfectGas;
    specie          specie;
}

defaultSpecie "N2";

// List of species involved in the mixture
species ("O2" "O" "N2" "N" "NO" "e-" "N+" "NO+" "N2+" "O+" "O2+");

// * * * * * * * * * * * * * * * * * * * * * * * * * * * * * * * * * * * * * //
// Species Definitions
// * * * * * * * * * * * * * * * * * * * * * * * * * * * * * * * * * * * * * //

"N2+"
{
    specie
    {
        molWeight       28.012855;
    }
    thermodynamics
    {
        Tlow            298.15;
        Thigh           20000;
        Tcommon         10149.075;
        highCpCoeffs    ( -13.61183854 0.005568066047 -5.246875623e-07 2.035390694e-11 -2.884387149e-16 224576.5603 130.2092864 );
        lowCpCoeffs     ( 3.188966155 0.0008739140687 -1.226245364e-07 1.391524085e-11 -6.490812691e-16 180561.8517 5.354304759 );
    }
    transport
    {
        As              1.907238654e-06;
        Ts              403.2298446;
    }
    elements
    {
        e               -1;
        N               2;
    }
}

"N2"
{
    specie
    {
        molWeight       28.0134;
    }
    thermodynamics
    {
        Tlow            200;
        Thigh           20000;
        Tcommon         10100;
        highCpCoeffs    ( 38.55815934 -0.0108273068 1.226284434e-06 -5.638174308e-11 9.111977686e-16 -85568.88752 -253.8974967 );
        lowCpCoeffs     ( 3.233832905 0.0008859052376 -2.174073977e-07 2.203149561e-11 -6.776238159e-16 -1008.567335 4.338787749 );
    }
    transport
    {
        As              1.907238654e-06;
        Ts              403.2298446;
    }
    elements
    {
        N               2;
    }
}

"NO+"
{
    specie
    {
        molWeight       30.005555;
    }
    thermodynamics
    {
        Tlow            298.15;
        Thigh           20000;
        Tcommon         10149.075;
        highCpCoeffs    ( 66.6304521 -0.01891202203 2.058185293e-06 -9.252804282e-11 1.475515136e-15 -41396.27792 -461.8002012 );
        lowCpCoeffs     ( 3.230585432 0.0008655379324 -2.017847669e-07 1.907427201e-11 -5.301358816e-16 118166.0801 5.171118227 );
    }
    transport
    {
        As              1.97390799e-06;
        Ts              403.2298469;
    }
    elements
    {
        e               -1;
        N               1;
        O               1;
    }
}

N
{
    specie
    {
        molWeight       14.0067;
    }
    thermodynamics
    {
        Tlow            200;
        Thigh           20000;
        Tcommon         10100;
        highCpCoeffs    ( 0.9495603198 0.0007315331526 -7.224723373e-08 3.113726926e-12 -4.921021893e-17 56822.56013 14.47300668 );
        lowCpCoeffs     ( 2.547219978 -6.947660269e-05 8.363928095e-09 5.761462021e-12 -4.834285606e-16 56096.895 3.94075531 );
    }
    transport
    {
        As              1.696593553e-06;
        Ts              390.6888192;
    }
    elements
    {
        N               1;
    }
}

"e-"
{
    specie
    {
        molWeight       0.0005485847911234045;
    }
    thermodynamics
    {
        Tlow            298.15;
        Thigh           20000;
        Tcommon         10149.075;
        highCpCoeffs    ( 2.5 0 0 0 0 -745.375 -11.72081224 );
        lowCpCoeffs     ( 2.5 0 0 0 0 -745.375 -11.72081224 );
    }
    transport
    {
        As              1;
        Ts              1;
    }
    elements
    {
        e               1;
    }
}

O2
{
    specie
    {
        molWeight       31.9988;
    }
    thermodynamics
    {
        Tlow            200;
        Thigh           20000;
        Tcommon         10100;
        highCpCoeffs    ( 3.427649383 0.0009238394608 -1.259569615e-07 5.866978662e-12 -9.445550182e-17 -3256.487032 4.176094987 );
        lowCpCoeffs     ( 3.425479625 0.0008259646106 -1.639112071e-07 1.77042095e-11 -8.05979015e-16 -1045.364323 4.905191907 );
    }
    transport
    {
        As              2.206126191e-06;
        Ts              408.5263796;
    }
    elements
    {
        O               2;
    }
}

"N+"
{
    specie
    {
        molWeight       14.006155;
    }
    thermodynamics
    {
        Tlow            298.15;
        Thigh           20000;
        Tcommon         10149.075;
        highCpCoeffs    ( 2.300263596 0.0001137860967 -9.35139787e-09 3.533268943e-13 -4.426487653e-18 225635.5555 6.265906075 );
        lowCpCoeffs     ( 2.569543674 -9.887065821e-05 3.848801986e-08 -3.879076674e-12 1.258831425e-16 225604.4104 4.605390722 );
    }
    transport
    {
        As              1.696593553e-06;
        Ts              390.6888192;
    }
    elements
    {
        e               -1;
        N               1;
    }
}

"O2+"
{
    specie
    {
        molWeight       31.998255;
    }
    thermodynamics
    {
        Tlow            298.15;
        Thigh           20000;
        Tcommon         10149.075;
        highCpCoeffs    ( -39.38791229 0.01217665454 -1.147739109e-06 4.594356146e-11 -6.765642589e-16 256607.6266 325.0886399 );
        lowCpCoeffs     ( 3.243503066 0.001196836499 -4.073674082e-07 5.844032157e-11 -2.610085256e-15 139919.7311 5.886555061 );
    }
    transport
    {
        As              2.206126191e-06;
        Ts              408.5263796;
    }
    elements
    {
        e               -1;
        O               2;
    }
}

O
{
    specie
    {
        molWeight       15.9994;
    }
    thermodynamics
    {
        Tlow            200;
        Thigh           20000;
        Tcommon         10100;
        highCpCoeffs    ( 3.388741947 -0.0001579957511 1.337102872e-08 -3.94138872e-13 3.423751133e-18 26012.37678 -1.763654729 );
        lowCpCoeffs     ( 2.649392641 -0.0001714886617 5.915981397e-08 -6.297113916e-12 2.23273121e-16 29177.93129 4.309900751 );
    }
    transport
    {
        As              2.567509404e-06;
        Ts              394.5719957;
    }
    elements
    {
        O               1;
    }
}

"O+"
{
    specie
    {
        molWeight       15.998855;
    }
    thermodynamics
    {
        Tlow            298.15;
        Thigh           20000;
        Tcommon         10149.075;
        highCpCoeffs    ( -1.254505665 0.0008464549369 -4.726677267e-08 8.582986126e-13 -7.065977207e-19 198952.1518 32.86082405 );
        lowCpCoeffs     ( 2.470636018 6.758633742e-05 -4.12838563e-08 8.409553038e-12 -4.091731565e-16 187941.2568 4.544723957 );
    }
    transport
    {
        As              2.567509404e-06;
        Ts              394.5719957;
    }
    elements
    {
        e               -1;
        O               1;
    }
}

NO
{
    specie
    {
        molWeight       30.0061;
    }
    thermodynamics
    {
        Tlow            200;
        Thigh           20000;
        Tcommon         10100;
        highCpCoeffs    ( -2.35248137 0.001355584385 -5.181297277e-08 -9.337636405e-13 5.229058611e-17 31154.78728 51.34514341 );
        lowCpCoeffs     ( 3.346688333 0.0009404198431 -2.671831308e-07 3.27057029e-11 -1.3136469e-15 9933.226018 5.97581086 );
    }
    transport
    {
        As              1.97390799e-06;
        Ts              403.2298469;
    }
    elements
    {
        N               1;
        O               1;
    }
}