/*--------------------------------*- C++ -*----------------------------------*\
  =========                 |
T	20000;
   \\    /   O peration     | Website:  https://openfoam.org
    \\  /    A nd           | Version:  12
     \\/     M anipulation  |
\*---------------------------------------------------------------------------*/
FoamFile
{
    format      ascii;
    class       dictionary;
    location    "constant";
    object      initialConditions;
}
// * * * * * * * * * * * * * * * * * * * * * * * * * * * * * * * * * * * * * //

constantProperty pressure;
constantProperty pressure;

p           202650;  // Pa
T           300;     // K
fractionBasis  mole;
fractionBasis  mole;


fractions
{
    N2      0.79;
    O2      0.21;
    NO      0;
    N       0;
    O       0;
}




// ************************************************************************* //
